/*--------------------------------*- C++ -*----------------------------------*\
| =========                 |                                                 |
| \\      /  F ield         | OpenFOAM: The Open Source CFD Toolbox           |
|  \\    /   O peration     | Version:  dev                                   |
|   \\  /    A nd           | Web:      www.OpenFOAM.org                      |
|    \\/     M anipulation  |                                                 |
\*---------------------------------------------------------------------------*/
FoamFile
{
    version     2.0;
    format      ascii;
    class       polyBoundaryMesh;
    location    "2/polyMesh";
    object      boundary;
}
// * * * * * * * * * * * * * * * * * * * * * * * * * * * * * * * * * * * * * //

4
(
    primaryInlet
    {
        type            patch;
        nFaces          416;
        startFace       1114887;
    }
    secondaryInlet
    {
        type            patch;
        nFaces          40;
        startFace       1115303;
    }
    gasOutlet
    {
        type            patch;
        nFaces          495;
        startFace       1115343;
    }
    walls
    {
        type            wall;
        inGroups        1(wall);
        nFaces          180140;
        startFace       1115838;
    }
)

// ************************************************************************* //
