/*--------------------------------*- C++ -*----------------------------------*\
| =========                 |                                                 |
| \\      /  F ield         | OpenFOAM: The Open Source CFD Toolbox           |
|  \\    /   O peration     | Version:  dev                                   |
|   \\  /    A nd           | Web:      www.OpenFOAM.org                      |
|    \\/     M anipulation  |                                                 |
\*---------------------------------------------------------------------------*/
FoamFile
{
    version     2.0;
    format      binary;
    class       polyBoundaryMesh;
    location    "constant/polyMesh";
    object      boundary;
}
// * * * * * * * * * * * * * * * * * * * * * * * * * * * * * * * * * * * * * //

5
(
    frontBack
    {
        type            empty;
        physicalType    empty;
        nFaces          74688;
        startFace       182724;
    }
    primaryInlet
    {
        type            patch;
        physicalType    patch;
        nFaces          64;
        startFace       257412;
    }
    walls
    {
        type            wall;
        physicalType    wall;
        nFaces          7896;
        startFace       257476;
    }
    secondaryInlet
    {
        type            patch;
        physicalType    patch;
        nFaces          8;
        startFace       265372;
    }
    gasOutlet
    {
        type            patch;
        physicalType    patch;
        nFaces          24;
        startFace       265380;
    }
)

// ************************************************************************* //
