/*--------------------------------*- C++ -*----------------------------------*\
| =========                 |                                                 |
| \\      /  F ield         | OpenFOAM: The Open Source CFD Toolbox           |
|  \\    /   O peration     | Version:  dev                                   |
|   \\  /    A nd           | Web:      www.OpenFOAM.org                      |
|    \\/     M anipulation  |                                                 |
\*---------------------------------------------------------------------------*/
FoamFile
{
    version     2.0;
    format      ascii;
    class       dictionary;
    location    "system";
    object      setFieldsDict;
}
// * * * * * * * * * * * * * * * * * * * * * * * * * * * * * * * * * * * * * //

defaultFieldValues
(
    volScalarFieldValue alpha.air 1
    volScalarFieldValue alpha.particles 0
    volScalarFieldValue alpha.particles1 0
);

regions
(
    boxToCell
    {
        box (0 0 -0.1) (0.032 0.04 0.1);
        fieldValues
        (
            volScalarFieldValue alpha.air 0.38
            volScalarFieldValue alpha.particles     0.31
            volScalarFieldValue alpha.particles1    0.31
        );
    }

//     cylinderToCell
//     {
//         p1 (0 0 0);
//         p2 (0 0.04 0);
//         radius 0.016;
//
//         fieldValues
//         (
//             volScalarFieldValue alpha.air 0.38
//             volScalarFieldValue alpha.particles     0.31
//             volScalarFieldValue alpha.particles1    0.31
//         );
//     }
);


// ************************************************************************* //
