/*--------------------------------*- C++ -*----------------------------------*\
| =========                 |                                                 |
| \\      /  F ield         | OpenFOAM: The Open Source CFD Toolbox           |
|  \\    /   O peration     | Version:  dev                                   |
|   \\  /    A nd           | Web:      www.OpenFOAM.org                      |
|    \\/     M anipulation  |                                                 |
\*---------------------------------------------------------------------------*/
FoamFile
{
    version     2.0;
    format      ascii;
    class       dictionary;
    location    "system";
    object      setFieldsDict;
}
// * * * * * * * * * * * * * * * * * * * * * * * * * * * * * * * * * * * * * //

defaultFieldValues
(
    volScalarFieldValue alpha.air 1
    volScalarFieldValue alpha.particles1 0
    volScalarFieldValue alpha.particles2 0
    volScalarFieldValue T.air 1123.0
    volScalarFieldValue T.particles1 1123.0
    volScalarFieldValue T.particles2 1123.0
    volScalarFieldValue wood.particles2 1.0
    volScalarFieldValue char.particles2 0
    volScalarFieldValue gas.particles2 0
);

regions
(
    boxToCell
    {
        box (-0.15 0 -1) (0.15 0.5 1);

        fieldValues
        (
            volScalarFieldValue alpha.air 0.4
            volScalarFieldValue alpha.particles1    0.30
            volScalarFieldValue alpha.particles2    0.30
            volScalarFieldValue T.particles2 600.0
        );
    }
);


// ************************************************************************* //
