/*--------------------------------*- C++ -*----------------------------------*\
| =========                 |                                                 |
| \\      /  F ield         | OpenFOAM: The Open Source CFD Toolbox           |
|  \\    /   O peration     | Version:  dev                                   |
|   \\  /    A nd           | Web:      www.OpenFOAM.org                      |
|    \\/     M anipulation  |                                                 |
\*---------------------------------------------------------------------------*/
FoamFile
{
    version     2.0;
    format      ascii;
    class       dictionary;
    location    "system";
    object      fvSolution;
}
// * * * * * * * * * * * * * * * * * * * * * * * * * * * * * * * * * * * * * //

solvers
{
    "alpha.*"
    {
        nAlphaSubCycles 3;
        implicitPhasePressure yes;

        solver          GAMG;
        preconditioner  DIC;
        smoother        DIC;
        tolerance       1e-12;
        relTol          0;
        minIter         1;
    }

    p_rgh
    {
        solver          GAMG;
        smoother        DIC;
        tolerance       1e-10;
        relTol          0.01;
    }

    p_rghFinal
    {
        $p_rgh;
        relTol          0;
    }

    "U.*"
    {
        solver          PBiCG;
        preconditioner  DILU;
        tolerance       1e-8;
        relTol          0;
        minIter         1;
    }

    "(h|e).*"
    {
        solver          smoothSolver;
        smoother        symGaussSeidel;
        tolerance       1e-6;
        relTol          0;
        maxIter         0;
    }

    "Theta.*"
    {
        solver          PBiCGStab;
        preconditioner  DILU;
        tolerance       1e-8;
        relTol          0;
        minIter         1;
    }

    "(k|epsilon).*"
    {
        solver          smoothSolver;
        smoother        symGaussSeidel;
        tolerance       1e-5;
        relTol          0;
        minIter         1;
    }
}

PIMPLE
{
    nOuterCorrectors 3;
    nCorrectors      1;
    nNonOrthogonalCorrectors 0;
    faceMomentum     no;
    pRefCell    0;
    pRefValue   1e5;

    outerCorrectorResidualControl
    {
        p_rgh
        {
            tolerance   1e-4;
            relTol      0;
        }
    }
}

relaxationFactors
{
    equations
    {
        p_rgh           1;
    }
}


// ************************************************************************* //
