/*--------------------------------*- C++ -*----------------------------------*\
| =========                 |                                                 |
| \\      /  F ield         | OpenFOAM: The Open Source CFD Toolbox           |
|  \\    /   O peration     | Version:  dev                                   |
|   \\  /    A nd           | Web:      www.OpenFOAM.org                      |
|    \\/     M anipulation  |                                                 |
\*---------------------------------------------------------------------------*/
FoamFile
{
    version     2.0;
    format      ascii;
    class       dictionary;
    location    "system";
    object      fvSchemes;
}
// * * * * * * * * * * * * * * * * * * * * * * * * * * * * * * * * * * * * * //

compressible
{
    fluxIntegrator  Euler;
    fluxScheme      HLLC;
}
ddtSchemes
{
    default         Euler;
}

gradSchemes
{
    default         leastSquares;
}

divSchemes
{
    default         none;

}

laplacianSchemes
{
    default         Gauss linear corrected;
}

interpolationSchemes
{
    default             linear;
    reconstruct(U)      SuperBeeV;
    reconstruct(H)      SuperBee;
    reconstruct(p)      SuperBee;
    reconstruct(rho)    SuperBee;
    reconstruct(a)      SuperBee;
}

snGradSchemes
{
    default         corrected;
}


// ************************************************************************* //
